[DDZ3V6BSF]
*DIODES_INC_SPICE_MODEL
*SIMULATOR=SIMETRIX
*ORIGIN=DZSL_DPG_SU
*DATE=29Jan2016
*VERSION=1

.SUBCKT DDZ3V6BSF  1 2
*        Terminals    A   K
D1 1 2 DF
DZ 1 2 DR
.MODEL DF D ( IS=10f RS=.5 N=1.10
+ CJO=46.3p VJ=0.750 M=0.330 TT=10.1n BV=3.35 IBV=.1u TBV1=-1m)
.MODEL DR D ( IS=5f RS=6k N=10 BV=.5 IBV=1f ISR=1f Eg=1.4 TBV1=-6m)
.ENDS