Version 4
SHEET 1 924 680
WIRE 736 -144 384 -144
WIRE -32 -80 -32 -160
WIRE 64 -80 -32 -80
WIRE 384 -80 384 -144
WIRE 384 -80 320 -80
WIRE 384 -48 384 -80
WIRE 64 0 32 0
WIRE 384 32 384 16
WIRE 32 80 32 0
WIRE 64 80 32 80
WIRE 576 80 576 64
WIRE 576 80 320 80
WIRE 736 80 576 80
WIRE 32 144 32 80
WIRE 736 240 384 240
WIRE -32 304 -32 -80
WIRE 64 304 -32 304
WIRE 384 304 384 240
WIRE 384 304 320 304
WIRE 384 336 384 304
WIRE 64 384 32 384
WIRE 384 416 384 400
WIRE 32 464 32 384
WIRE 64 464 32 464
WIRE 576 464 576 448
WIRE 576 464 320 464
WIRE 736 464 576 464
WIRE 32 528 32 464
FLAG 32 144 0
FLAG 32 528 0
FLAG -32 -160 Vin_wall
FLAG -496 176 Vin_wall
FLAG -496 256 0
FLAG 384 32 0
FLAG 384 416 0
FLAG 576 -16 Vin_wall
FLAG 576 368 Vin_wall
FLAG 736 80 Status1
FLAG 736 464 Status2
FLAG 736 -144 Load1
FLAG 736 240 Load2
SYMBOL SpecialFunctions\\LTC4411 192 0 R0
SYMATTR InstName U1
SYMBOL SpecialFunctions\\LTC4411 192 384 R0
SYMATTR InstName U2
SYMBOL voltage -496 160 R0
WINDOW 123 0 0 Left 0
WINDOW 39 0 0 Left 0
SYMATTR InstName Vin_wall
SYMATTR Value 5
SYMBOL res 560 -32 R0
SYMATTR InstName R1
SYMATTR Value 470k
SYMBOL res 560 352 R0
SYMATTR InstName R2
SYMATTR Value 470k
SYMBOL cap 368 -48 R0
SYMATTR InstName C1
SYMATTR Value 12960
SYMBOL cap 368 336 R0
SYMATTR InstName C2
SYMATTR Value 12960
TEXT 88 -232 Left 2 ;3600mAh Batt = 3.6 C/s * 3600 s/hr = 12960C  or 12960F
TEXT 736 -96 Left 2 !.ic V(Load1) = 2
TEXT 736 296 Left 2 !.ic V(Load2) = 3
TEXT 384 560 Left 2 !.tran 0 36000s 0 10s
TEXT 248 -272 Left 2 ;Modeling Batt as a Cap
